All scripts used for building GEOS-Chem on the cloud.