##############################
GEOS-Chem Classic on AWS cloud
##############################

Documentation TBD
